4
Coordinates from ORCA-job calc E -56.369029598482
  N       1.087641     -0.339946     -0.009725
  H       1.998268      0.055028      0.006512
  H       0.594540     -0.485602      0.839492
  H       0.669981     -0.589301     -0.875119
4
Coordinates from ORCA-job calc E -56.369639160276
  N       1.072830     -0.305689     -0.012449
  H       2.007398      0.045427      0.007495
  H       0.597207     -0.497690      0.844307
  H       0.672995     -0.601868     -0.878193
4
Coordinates from ORCA-job calc E -56.369313425645
  N       1.086698     -0.337748     -0.009894
  H       2.009205      0.058903      0.006752
  H       0.589100     -0.488036      0.849433
  H       0.665428     -0.592939     -0.885131
4
Coordinates from ORCA-job calc E -56.369317722351
  N       1.087454     -0.339556     -0.009748
  H       2.007406      0.058834      0.006671
  H       0.589679     -0.487184      0.848000
  H       0.665891     -0.591914     -0.883764
4
Coordinates from ORCA-job calc E -56.369317781047
  N       1.087636     -0.339998     -0.009711
  H       2.007522      0.059058      0.006659
  H       0.589520     -0.487065      0.848170
  H       0.665752     -0.591815     -0.883959
4
Coordinates from ORCA-job calc E -56.369317772040
  N       1.087613     -0.339952     -0.009713
  H       2.007522      0.059039      0.006658
  H       0.589530     -0.487079      0.848170
  H       0.665766     -0.591828     -0.883954
