  9
        -11.39433938
 C          1.2750103160       -0.2515112709       -0.0157796005
 H          1.3036909654       -0.8521541596       -0.9217447019
 H          1.3400130131       -0.9164860395        0.8445611167
 H          2.1344117292        0.4129888568       -0.0061616335
 C         -0.0145961490        0.5611375769        0.0327476220
 H         -0.0400034353        1.1639871212        0.9531806971
 H         -0.0683962561        1.2380006247       -0.8229004231
 O         -1.1686470611       -0.2414982835       -0.0562979052
 H         -1.1387930782       -0.9025661137        0.6445321512
  9
        -11.39225781
 C          1.2714397165       -0.2438066865        0.0004107387
 H          1.3393057687       -0.7962645286       -0.9357576495
 H          1.3095068756       -0.9489835159        0.8295690300
 H          2.1299632932        0.4185452651        0.0722040614
 C         -0.0158924494        0.5645664192        0.0486062392
 H         -0.0687179570        1.1292790245        0.9883533652
 H         -0.0387855694        1.2824609861       -0.7813956397
 O         -1.1790898636       -0.2361677397       -0.0404295219
 H         -0.9165823246       -1.1585594207       -0.1153234295
  9
        -11.39186742
 C          1.2591665817       -0.2891576171       -0.0036975793
 H          1.2845457629       -0.8457370121       -0.9363985214
 H          1.2549170812       -0.9975118155        0.8199180151
 H          2.1431286176        0.3386498667        0.0655384671
 C          0.0038252475        0.5674122577        0.0492130999
 H         -0.0226117384        1.1333749410        0.9923103232
 H          0.0074919311        1.2872039884       -0.7828032050
 O         -1.1210088800       -0.2821978130       -0.0434051428
 H         -1.9234746163        0.2477061140       -0.0119539822
