4
Coordinates from ORCA-job calc E -56.139540643102
  N       1.087641     -0.339946     -0.009725
  H       1.998268      0.055028      0.006512
  H       0.594540     -0.485602      0.839492
  H       0.669981     -0.589301     -0.875119
4
Coordinates from ORCA-job calc E -56.139879970776
  N       1.072889     -0.305825     -0.012438
  H       2.001897      0.043095      0.007394
  H       0.600155     -0.496768      0.839192
  H       0.675489     -0.600322     -0.872989
4
Coordinates from ORCA-job calc E -56.139541026681
  N       1.087299     -0.339179     -0.009780
  H       1.998085      0.054643      0.006519
  H       0.594809     -0.485811      0.839250
  H       0.670237     -0.589474     -0.874828
4
Coordinates from ORCA-job calc E -56.139540860782
  N       1.087627     -0.339969     -0.009715
  H       1.998005      0.054919      0.006493
  H       0.594679     -0.485551      0.839287
  H       0.670119     -0.589218     -0.874905
4
Coordinates from ORCA-job calc E -56.139540860825
  N       1.087614     -0.339952     -0.009714
  H       1.998003      0.054910      0.006490
  H       0.594684     -0.485557      0.839290
  H       0.670129     -0.589222     -0.874906
