  9
        -11.39338222
 C         -1.2722643412        0.2490380749        0.0151505049
 H         -2.1596688785       -0.3855351350       -0.0227316093
 H         -1.3273104757        0.9477707040       -0.8202498889
 H         -1.3208733592        0.8378375697        0.9316016665
 C          0.0087394318       -0.5587632502       -0.0342855202
 H          0.0538473201       -1.2743764313        0.7970546480
 H          0.0722447904       -1.1566820812       -0.9538359760
 O          1.1702855344        0.2386109340        0.0588100063
 H          1.1618988192        0.9342270680       -0.6373593736
  9
        -11.39135363
 C         -1.2762002338        0.2408426848       -0.0014363200
 H         -1.3510520628        0.8032134863        0.9299323821
 H         -2.1582082964       -0.3980938773       -0.0746844695
 H         -1.3195940824        0.9603279437       -0.8198334430
 C          0.0105343717       -0.5598244024       -0.0501245242
 H          0.0509158595       -1.2942094686        0.7656771384
 H          0.0827270114       -1.1369960007       -0.9818687649
 O          1.1855077468        0.2318098415        0.0426986986
 H          0.9592258822        1.1872690112        0.1174214090
  9
        -11.39032108
 C         -1.2816528583        0.2792678611        0.0017242458
 H         -1.3041563546        1.0025533491       -0.8138774400
 H         -1.3360556117        0.8450033441        0.9322282256
 H         -2.1780099502       -0.3396681267       -0.0705077708
 C         -0.0097942988       -0.5421360200       -0.0491050885
 H          0.0112175067       -1.2731436326        0.7709387251
 H          0.0434435621       -1.1146708981       -0.9853992942
 O          1.1457237578        0.2700515789        0.0452158559
 H          1.9663380214       -0.2743093515        0.0134919844
